
     RDKit          3D

  0  0  0  0  0  0  0  0  0  0999 V3000
M  V30 BEGIN CTAB
M  V30 COUNTS 13 12 0 0 0
M  V30 BEGIN ATOM
M  V30 1 N 2.20727 -0.0309461 -0.31034 0
M  V30 2 C 0.992281 0.531083 0.247814 0
M  V30 3 C 0.204382 -0.476102 1.04971 0 CHG=-1 RAD=2 VAL=2
M  V30 4 C -1.10587 -0.818343 0.417351 0
M  V30 5 N -2.22668 -0.118234 0.933831 0
M  V30 6 H 2.68394 0.743277 -0.819836 0
M  V30 7 H 2.81616 -0.477919 0.415407 0
M  V30 8 H 1.1795 1.44396 0.848644 0
M  V30 9 H 0.354342 0.815085 -0.617914 0
M  V30 10 H -1.0139 -0.556619 -0.675768 0
M  V30 11 H -1.2944 -1.90902 0.434067 0
M  V30 12 H -2.07523 0.405917 1.8069 0
M  V30 13 H -2.7218 0.447862 0.214815 0
M  V30 END ATOM
M  V30 BEGIN BOND
M  V30 1 1 1 2
M  V30 2 1 2 3
M  V30 3 1 3 4
M  V30 4 1 4 5
M  V30 5 1 1 6
M  V30 6 1 1 7
M  V30 7 1 2 8
M  V30 8 1 2 9
M  V30 9 1 4 10
M  V30 10 1 4 11
M  V30 11 1 5 12
M  V30 12 1 5 13
M  V30 END BOND
M  V30 END CTAB
M  END
